Header
  CHECK KEYWORDS Warn
  Mesh DB "." "."
  Include Path ""
  Results Directory ""
End

Simulation
  Max Output Level = 5
  Coordinate System = Cartesian
  Coordinate Mapping(3) = 1 2 3
  Simulation Type = Transient
  Steady State Max Iterations = 1
  Output Intervals = 100
  Timestepping Method = BDF
  BDF Order = 2
  Timestep intervals = 1000
  Timestep Sizes = .001
  Solver Input File = case.sif
  Post File = case.vtu
End

Constants
  Gravity(4) = 0 -1 0 9.82
  Stefan Boltzmann = 5.67e-08
  Permittivity of Vacuum = 8.8542e-12
  Boltzmann Constant = 1.3807e-23
  Unit Charge = 1.602e-19
End

Body 1
  Target Bodies(1) = 2
  Name = "Body 1"
  Equation = 1
  Material = 1
End

Solver 1
  Equation = Nonlinear elasticity
  Variable = -dofs 3 Displacement
  Calculate Strains = True
  Procedure = "ElasticSolve" "ElasticSolver"
  Calculate Principal = True
  Calculate Stresses = True
  Exec Solver = Always
  Stabilize = True
  Bubbles = False
  Lumped Mass Matrix = False
  Optimize Bandwidth = True
  Steady State Convergence Tolerance = 1.0e-5
  Nonlinear System Convergence Tolerance = 1.0e-5
  Nonlinear System Max Iterations = 20
  Nonlinear System Newton After Iterations = 3
  Nonlinear System Newton After Tolerance = 1.0e-3
  Nonlinear System Relaxation Factor = 1
  Linear System Solver = Iterative
  Linear System Iterative Method = GCR
  Linear System Max Iterations = 500
  Linear System Convergence Tolerance = 1.0e-7
  BiCGstabl polynomial degree = 2
  Linear System Preconditioning = ILU0
  Linear System ILUT Tolerance = 1.0e-3
  Linear System Abort Not Converged = False
  Linear System Residual Output = 10
  Linear System Precondition Recompute = 1
End

Equation 1
  Name = "Equation 1"
  Active Solvers(1) = 1
End

Material 1
Name = "Steel"
Density = 1
Poisson ratio = 0.3
Youngs Modulus = Variable "Principal Strain 1"
 Real
 0.0000 210000.0
0.0016 210000.0
0.0100 1470.1
0.0200 1475.3
0.0300 1475.3
0.0400 2092.2
0.0500 2286.9
0.0600 2286.9
0.0700 1857.1
0.0800 1372.3
0.1000 1259.0
0.1100 857.4
0.1200 857.4
0.1300 835.3
0.1400 636.4
0.1500 636.5
0.1600 636.5
0.1900 555.2
0.2000 520.4
0.2100 520.4
! ... 27 like lines cut
 End
End

Boundary Condition 1
  Target Boundaries(1) = 6 
  Name = "symx"
  Displacement 1 = 0
End

Boundary Condition 2
  Target Boundaries(1) = 2 
  Name = "symy"
  Displacement 2 = 0
End

Boundary Condition 3
  Target Boundaries(1) = 4 
  Name = "symz"
  Displacement 3 = 0
End

Boundary Condition 4
  Target Boundaries(1) = 1 
  Name = "load"
  Displacement 1 = Variable "Time" 
   Real 
0 0.008
0.0001 0.0016
0.0002 0.0032
0.0003 0.0048
0.0004 0.0064
0.0005 0.008
0.0006 0.0096
0.0007 0.0112
0.0008 0.0128
0.0009 0.0144
0.001 0.016
0.0011 0.0176
0.0012 0.0192
0.0013 0.0208
0.0014 0.0224
0.0015 0.024
0.0016 0.0256
0.0017 0.0272
0.0018 0.0288
0.0019 0.0304
! ... 9981 like lines cut
   End
  End
